<?xml version="1.0" encoding="UTF-8" ?>
<routes xmlns="http://symfony.com/schema/routing"
        xmlns:xsi="http://www.w3.org/2001/XMLSchema-instance"
        xsi:schemaLocation="http://symfony.com/schema/routing
        https://symfony.com/schema/routing/routing-1.0.xsd">

    <route id="frontend.mollie.payment"
           path="/mollie/payment/{transactionId}"
           methods="GET|POST">
        <requirement key="transactionId">.*</requirement>
        <default key="_controller">Mollie\Shopware\Component\Payment\Controller\PaymentController::return</default>
        <default key="csrf_protected"><bool>false</bool></default>
        <default key="_routeScope"><list><string>storefront</string></list></default>
        <option key="seo">false</option>
    </route>

    <route id="frontend.mollie.webhook"
           path="/mollie/webhook/{transactionId}"
           methods="GET|POST">
        <requirement key="transactionId">.*</requirement>
        <default key="_controller">Mollie\Shopware\Component\Payment\Controller\PaymentController::webhook</default>
        <default key="csrf_protected"><bool>false</bool></default>
        <default key="_routeScope"><list><string>storefront</string></list></default>
        <option key="seo">false</option>
    </route>
</routes>